Version 4.1
SHEET 1 2356 1108
WIRE -192 -512 -192 -544
WIRE -288 -416 -384 -416
WIRE -192 -416 -192 -432
WIRE -192 -416 -288 -416
WIRE -96 -416 -192 -416
WIRE -624 -384 -624 -400
WIRE -544 -384 -624 -384
WIRE -384 -384 -384 -416
WIRE -288 -384 -288 -416
WIRE -192 -384 -192 -416
WIRE -96 -384 -96 -416
WIRE -624 -368 -624 -384
WIRE -544 -368 -544 -384
WIRE -1360 -352 -1360 -400
WIRE -2032 -336 -2032 -368
WIRE -1696 -336 -1696 -368
WIRE -384 -288 -384 -320
WIRE -624 -272 -624 -288
WIRE -544 -272 -544 -304
WIRE -288 -272 -288 -304
WIRE -192 -272 -192 -320
WIRE -192 -272 -288 -272
WIRE -96 -272 -96 -304
WIRE -96 -272 -192 -272
WIRE -1360 -240 -1360 -272
WIRE -2032 -224 -2032 -256
WIRE -1696 -224 -1696 -256
WIRE -192 -224 -192 -272
WIRE -144 -224 -192 -224
WIRE -32 -224 -80 -224
WIRE 272 -224 208 -224
WIRE 560 -224 512 -224
WIRE 656 -224 624 -224
WIRE 688 -224 656 -224
WIRE 784 -224 768 -224
WIRE 912 -224 784 -224
WIRE 960 -224 912 -224
WIRE -192 -208 -192 -224
WIRE 912 -192 912 -224
WIRE 656 -176 656 -224
WIRE 784 -176 784 -224
WIRE -512 -160 -560 -160
WIRE -432 -160 -448 -160
WIRE -240 -160 -432 -160
WIRE -416 -128 -560 -128
WIRE -320 -128 -352 -128
WIRE -240 -128 -320 -128
WIRE -1360 -96 -1360 -144
WIRE -192 -96 -192 -112
WIRE -96 -96 -192 -96
WIRE -2032 -80 -2032 -96
WIRE -432 -80 -432 -160
WIRE -320 -80 -320 -128
WIRE -192 -80 -192 -96
WIRE -96 -64 -96 -96
WIRE 656 -64 656 -112
WIRE 720 -64 656 -64
WIRE 784 -64 784 -112
WIRE 784 -64 720 -64
WIRE 912 -64 912 -112
WIRE 720 -32 720 -64
WIRE -2032 16 -2032 0
WIRE -1360 16 -1360 -16
WIRE -432 32 -432 0
WIRE -320 32 -320 0
WIRE -320 32 -432 32
WIRE -192 32 -192 0
WIRE -192 32 -320 32
WIRE -96 32 -96 0
WIRE -96 32 -192 32
WIRE -320 64 -320 32
FLAG -192 -544 VDC
FLAG -624 -400 VDC
FLAG -624 -272 0
FLAG -2032 -224 0
FLAG -2032 16 0
FLAG -2032 -96 voice
FLAG -2032 -368 carrier
FLAG -1360 16 0
FLAG -1360 -144 RF
FLAG -1360 -400 OSC
FLAG -1360 -240 0
FLAG -320 64 0
FLAG -560 -128 RF
FLAG -560 -160 OSC
FLAG 960 -224 AF
FLAG 720 -32 0
FLAG 912 -64 0
FLAG -1696 -368 carrier2
FLAG -1696 -224 0
FLAG -384 -288 0
FLAG -32 -224 OUT
FLAG 208 -224 OUT
FLAG -544 -272 0
SYMBOL xdgnmos -240 -208 R0
WINDOW 0 58 52 Left 2
SYMATTR InstName U2
SYMATTR SpiceModel BF998
SYMBOL res -448 -96 R0
SYMATTR InstName R4
SYMATTR Value 470k
SYMBOL res -336 -96 R0
SYMATTR InstName R5
SYMATTR Value 470k
SYMBOL res -208 -96 R0
SYMATTR InstName R6
SYMATTR Value 470
SYMBOL cap -112 -64 R0
SYMATTR InstName C2
SYMATTR Value 1n
SYMBOL cap -80 -240 R90
WINDOW 0 0 32 VBottom 2
WINDOW 3 32 32 VTop 2
SYMATTR InstName C3
SYMATTR Value 680p
SYMBOL voltage -624 -384 R0
WINDOW 123 0 0 Left 0
WINDOW 39 0 0 Left 0
SYMATTR InstName V1
SYMATTR Value 9V
SYMBOL bv -1360 -112 R0
WINDOW 3 24 100 Left 2
SYMATTR Value V=(V(voice)*V(carrier))+(V(voice)*V(carrier2))
SYMATTR InstName B1
SYMBOL voltage -2032 -96 R0
WINDOW 123 0 0 Left 0
WINDOW 39 0 0 Left 0
SYMATTR InstName V2
SYMATTR Value SINE(0.3 50m 5k)
SYMBOL voltage -2032 -352 R0
WINDOW 123 0 0 Left 0
WINDOW 39 0 0 Left 0
SYMATTR InstName V3
SYMATTR Value SINE(0 80m 1000k)
SYMBOL voltage -1360 -368 R0
WINDOW 123 0 0 Left 0
WINDOW 39 0 0 Left 0
SYMATTR InstName V4
SYMATTR Value SINE(0 0.5 1455k)
SYMBOL cap -448 -176 R90
WINDOW 0 -2 57 VBottom 2
WINDOW 3 -29 0 VTop 2
SYMATTR InstName C1
SYMATTR Value 220p
SYMBOL cap -352 -144 R90
WINDOW 0 14 7 VBottom 2
WINDOW 3 32 15 VTop 2
SYMATTR InstName C5
SYMATTR Value 100p
SYMBOL SpecialFunctions\\2ndOrdBandpass 352 -240 R0
SYMATTR InstName U3
SYMATTR Value f0=455k Q=50 H=10
SYMBOL cap 640 -176 R0
SYMATTR InstName C4
SYMATTR Value 1n
SYMBOL diode 560 -208 R270
WINDOW 0 32 32 VTop 2
WINDOW 3 0 32 VBottom 2
SYMATTR InstName D1
SYMATTR Value OA91
SYMBOL ind -112 -400 R0
SYMATTR InstName L1
SYMATTR Value 150µ
SYMATTR SpiceLine Rser=0.17
SYMBOL cap -208 -384 R0
SYMATTR InstName C6
SYMATTR Value 820p
SYMATTR SpiceLine Rser=0.2
SYMBOL res 896 -208 R0
SYMATTR InstName LOAD
SYMATTR Value 50k
SYMBOL res 784 -240 R90
WINDOW 0 0 56 VBottom 2
WINDOW 3 32 56 VTop 2
SYMATTR InstName R2
SYMATTR Value 10k
SYMBOL cap 768 -176 R0
SYMATTR InstName C8
SYMATTR Value 1n
SYMBOL voltage -1696 -352 R0
WINDOW 123 0 0 Left 0
WINDOW 39 0 0 Left 0
SYMATTR InstName V5
SYMATTR Value SINE(0 50m 1600k)
SYMBOL cap -368 -320 R180
WINDOW 0 24 56 Left 2
WINDOW 3 24 8 Left 2
SYMATTR InstName C7
SYMATTR Value 10n
SYMBOL res -208 -528 R0
SYMATTR InstName R3
SYMATTR Value 47
SYMBOL res -304 -400 R0
SYMATTR InstName R7
SYMATTR Value 22k
SYMBOL polcap -560 -368 R0
SYMATTR InstName C9
SYMATTR Value 47µ
TEXT -2072 176 Left 2 !.tran 0 1.2m 0.4m
TEXT -2072 136 Left 2 !.model OA91 D(Is=19.43u N=2.986 Rs=65.98 Ikf=0 Xti=3 Eg=1.11 Cjo=1.326p M=.3333 Vj=.75 Fc=.5 Isr=2.787u Nr=1.954 Bv=100 Ibv=100u Tt=5n type=germanium)
TEXT -1672 -216 Left 2 ;2nd radio station
TEXT -2008 -216 Left 2 ;1st radio station
TEXT -2008 32 Left 2 ;modulator for stations
TEXT -1328 24 Left 2 ;the RF  signal
TEXT -2056 -528 Left 2 ;simulated radio stations
TEXT 112 -528 Left 2 ;simulated detection
TEXT -624 -1208 Left 2 ;C = 820pF\nL = 150uH\nf0 = 1 / (2 * pi * sqrt(L*C)) = 1 / (2 * pi * sqrt(820e-12 * 150e-6)) = 453.803kHz\nRL_loss = 0.2ohm\nRC_loss = 0.17ohm\n \nw0 = 2 * PI * f0 = 2 * 3.1415 * 453 803 = 2 851 328\nXL = w0 * L = 427.9ohm\nXC = 1 / (w0 * C) = 427.8ohm\nRp,L = XL^2 / RL_loss = 914 634ohm\nRp,C = XC^2 / RC_loss = 1 076 040ohm\nRp,loss = 494 397ohm\n \n+ parallel R\nRp,total = 21 062ohm = ~21k\n \nQ = Rp,total * sqrt(C / L) = 21 062 * sqrt( 820e-12 / 150e-6) = 49.24\nBW = f0 / Q = 453803 / 49.24 = 9.21kHz\n \n9.21kHz Bandwidth is good for an AM radio!
TEXT 296 -704 Left 2 ;without parallel R: the Q is 350.1, the BW is 1.29kHz\nIt's to poor!
RECTANGLE Normal -720 -496 -2080 96 2
RECTANGLE Normal 1072 96 96 -496 2
